
! Generated by mosdef_cassandra version XX on 2020-07-08 12:51:38.825730

# Run_Name
gcmc.out
!------------------------------------------------------------------------------

# Sim_Type
gcmc
!------------------------------------------------------------------------------

# Nbr_Species
2
!------------------------------------------------------------------------------

# VDW_Style
lj cut_tail 0.14999999602635702 Ã…
!------------------------------------------------------------------------------

# Charge_Style
none
!------------------------------------------------------------------------------

# Mixing_Rule
lb
!------------------------------------------------------------------------------

# Seed_Info
35408662 30884102
!------------------------------------------------------------------------------

# Rcutoff_Low
0.5
!------------------------------------------------------------------------------

# Pair_Energy
true
!------------------------------------------------------------------------------

# Molecule_Files
species1.mcf 1
species2.mcf 500
!------------------------------------------------------------------------------

# Box_Info
1
orthogonal
20.970999039709568 26.514000734314322 4.4999998807907104
!------------------------------------------------------------------------------

# Temperature_Info
300.0
!------------------------------------------------------------------------------

# Chemical_Potential_Info
none -30.0 
!------------------------------------------------------------------------------

# Move_Probability_Info

# Prob_Translation
0.25
0.0 2.0 
!------------------------------------------------------------------------------

# Prob_Rotation
0.25
0.0 30.0 
!------------------------------------------------------------------------------

# Prob_Regrowth
0.3
0.0 1.0 
!------------------------------------------------------------------------------

# Prob_Insertion
0.1
none cbmc 
!------------------------------------------------------------------------------

# Prob_Deletion
0.1

!------------------------------------------------------------------------------

# Done_Probability_Info
!------------------------------------------------------------------------------

# Start_Type
read_config 1 0 box1.in.xyz
!------------------------------------------------------------------------------

# Run_Type
equilibration 1000 
!------------------------------------------------------------------------------

# Simulation_Length_Info
units steps
prop_freq 10
coord_freq 100
run 10000
!------------------------------------------------------------------------------

# Property_Info 1
energy_total
energy_intra
energy_inter
enthalpy
pressure
volume
nmols
mass_density

# Fragment_Files
species2/frag1/frag1.dat  1
species2/frag2/frag2.dat  2
!---------------------------------------------------------one line per fragment

# CBMC_Info
kappa_ins 10
kappa_dih 10
rcut_cbmc 6.0
!------------------------------------------------------------------------------

END
